?
WebS5256%Add "<th>" headers to this "<table>".2
øø D
WebS1827*Remove this deprecated "valign" attribute.2
úú ?
WebS5256%Add "<th>" headers to this "<table>".2
üü C
WebS1827)Remove this deprecated "width" attribute.2
‡‡ <C
WebS1827)Remove this deprecated "width" attribute.2
ˆˆ 4C
WebS1827)Remove this deprecated "width" attribute.2
 <C
WebS1827)Remove this deprecated "width" attribute.2
‘‘ 4C
WebS1827)Remove this deprecated "align" attribute.2
¡¡ /C
WebS1827)Remove this deprecated "width" attribute.2
©© <C
WebS1827)Remove this deprecated "width" attribute.2
ªª 4D
WebS1827*Remove this deprecated "valign" attribute.2
¸¸ ?
WebS5256%Add "<th>" headers to this "<table>".2
ÀÀ €
Web(MouseEventWithoutKeyboardEquivalentCheckCAdd a 'onKeyPress|onKeyDown|onKeyUp' attribute to this <input> tag.2
ÉÉ
 MC
WebS1827)Remove this deprecated "width" attribute.2
ÏÏ 8I
WebS1827/Remove this deprecated "cellspacing" attribute.2
ÏÏ 8I
WebS1827/Remove this deprecated "cellpadding" attribute.2
ÏÏ 8?
WebS5256%Add "<th>" headers to this "<table>".2
ÏÏ 8I
WebS1827/Remove this deprecated "cellspacing" attribute.2
ÒÒ
 1I
WebS1827/Remove this deprecated "cellpadding" attribute.2
ÒÒ
 1?
WebS5256%Add "<th>" headers to this "<table>".2
ÒÒ
 1C
WebS1827)Remove this deprecated "align" attribute.2
íí -Û
WebS6848ÂAvoid non-native interactive elements. If using native HTML is not possible, add an appropriate role and support for tabbing, mouse, keyboard, and touch inputs to an interactive content element.2öö ei
Web(MouseEventWithoutKeyboardEquivalentCheck,Add a 'onFocus' attribute to this <div> tag.2
öø
 KI
WebS1827/Remove this deprecated "cellpadding" attribute.2
ûû 5I
WebS1827/Remove this deprecated "cellspacing" attribute.2
ûû 5?
WebS5256%Add "<th>" headers to this "<table>".2
ûû 5h
Web(MouseEventWithoutKeyboardEquivalentCheck+Add a 'onFocus' attribute to this <tr> tag.2
üı WÛ
WebS6848ÂAvoid non-native interactive elements. If using native HTML is not possible, add an appropriate role and support for tabbing, mouse, keyboard, and touch inputs to an interactive content element.2€€ Lh
Web(MouseEventWithoutKeyboardEquivalentCheck+Add a 'onBlur' attribute to this <div> tag.2
€€ LÛ
WebS6848ÂAvoid non-native interactive elements. If using native HTML is not possible, add an appropriate role and support for tabbing, mouse, keyboard, and touch inputs to an interactive content element.2 @i
Web(MouseEventWithoutKeyboardEquivalentCheck,Add a 'onFocus' attribute to this <div> tag.2
 YÛ
WebS6848ÂAvoid non-native interactive elements. If using native HTML is not possible, add an appropriate role and support for tabbing, mouse, keyboard, and touch inputs to an interactive content element.2’’ ih
Web(MouseEventWithoutKeyboardEquivalentCheck+Add a 'onBlur' attribute to this <div> tag.2
’’ cÛ
WebS6848ÂAvoid non-native interactive elements. If using native HTML is not possible, add an appropriate role and support for tabbing, mouse, keyboard, and touch inputs to an interactive content element.2—— di
Web(MouseEventWithoutKeyboardEquivalentCheck,Add a 'onFocus' attribute to this <div> tag.2
—™
 KI
WebS1827/Remove this deprecated "cellpadding" attribute.2
œœ 5I
WebS1827/Remove this deprecated "cellspacing" attribute.2
œœ 5?
WebS5256%Add "<th>" headers to this "<table>".2
œœ 5Û
WebS6848ÂAvoid non-native interactive elements. If using native HTML is not possible, add an appropriate role and support for tabbing, mouse, keyboard, and touch inputs to an interactive content element.2¥¥ ji
Web(MouseEventWithoutKeyboardEquivalentCheck,Add a 'onFocus' attribute to this <div> tag.2
¥§
 KI
WebS1827/Remove this deprecated "cellpadding" attribute.2
ªª 5I
WebS1827/Remove this deprecated "cellspacing" attribute.2
ªª 5?
WebS5256%Add "<th>" headers to this "<table>".2
ªª 5Û
WebS6848ÂAvoid non-native interactive elements. If using native HTML is not possible, add an appropriate role and support for tabbing, mouse, keyboard, and touch inputs to an interactive content element.2³³ hi
Web(MouseEventWithoutKeyboardEquivalentCheck,Add a 'onFocus' attribute to this <div> tag.2
³µ
 KI
WebS1827/Remove this deprecated "cellpadding" attribute.2
¸¸ 5I
WebS1827/Remove this deprecated "cellspacing" attribute.2
¸¸ 5?
WebS5256%Add "<th>" headers to this "<table>".2
¸¸ 5h
Web(MouseEventWithoutKeyboardEquivalentCheck+Add a 'onFocus' attribute to this <tr> tag.2
¹º WÛ
WebS6848ÂAvoid non-native interactive elements. If using native HTML is not possible, add an appropriate role and support for tabbing, mouse, keyboard, and touch inputs to an interactive content element.2½½ Lh
Web(MouseEventWithoutKeyboardEquivalentCheck+Add a 'onBlur' attribute to this <div> tag.2
½½ L